 560
   50.000000   50.000000   50.000000  90.0000  90.0000  90.0000
 SI          4.15654354E-017  0.678837478  0.960021257
 SI          3.84008503  0.678837478  0.960021257
 SI          1.92004251  2.03651237  0.960021257
 SI          5.76012754  2.03651237  0.960021257
 SI          2.90958041E-016  4.75186253  2.88006377
 SI          5.76012754  3.39418745  2.88006377
 SI          3.84008503  4.75186253  2.88006377
 SI          1.92004251  3.39418745  2.88006377
 SI          5.76012754  2.03651237  4.80010653
 SI          1.92004251  2.03651237  4.80010653
 SI          4.15654354E-017  0.678837478  4.80010653
 SI          3.84008503  0.678837478  4.80010653
 SI          5.76012754  3.39418745  6.72014904
 SI          3.84008503  4.75186253  6.72014904
 SI          2.90958041E-016  4.75186253  6.72014904
 SI          1.92004251  3.39418745  6.72014904
 SI          3.74088898E-016  6.10953712  0.960021257
 SI          3.84008503  6.10953712  0.960021257
 SI          1.92004251  7.4672122  0.960021257
 SI          5.76012754  7.4672122  0.960021257
 SI          6.23481524E-016  10.1825619  2.88006377
 SI          5.76012754  8.82488728  2.88006377
 SI          3.84008503  10.1825619  2.88006377
 SI          1.92004251  8.82488728  2.88006377
 SI          5.76012754  7.4672122  4.80010653
 SI          1.92004251  7.4672122  4.80010653
 SI          3.74088898E-016  6.10953712  4.80010653
 SI          3.84008503  6.10953712  4.80010653
 SI          5.76012754  8.82488728  6.72014904
 SI          3.84008503  10.1825619  6.72014904
 SI          6.23481524E-016  10.1825619  6.72014904
 SI          1.92004251  8.82488728  6.72014904
 SI          7.06612408E-016  11.5402374  0.960021257
 SI          3.84008503  11.5402374  0.960021257
 SI          1.92004251  12.897912  0.960021257
 SI          5.76012754  12.897912  0.960021257
 SI          9.56005006E-016  15.6132622  2.88006377
 SI          5.76012754  14.2555866  2.88006377
 SI          3.84008503  15.6132622  2.88006377
 SI          1.92004251  14.2555866  2.88006377
 SI          5.76012754  12.897912  4.80010653
 SI          1.92004251  12.897912  4.80010653
 SI          7.06612408E-016  11.5402374  4.80010653
 SI          3.84008503  11.5402374  4.80010653
 SI          5.76012754  14.2555866  6.72014904
 SI          3.84008503  15.6132622  6.72014904
 SI          9.56005006E-016  15.6132622  6.72014904
 SI          1.92004251  14.2555866  6.72014904
 SI          1.03913589E-015  16.9709377  0.960021257
 SI          3.84008503  16.9709377  0.960021257
 SI          1.92004251  18.3286114  0.960021257
 SI          5.76012754  18.3286114  0.960021257
 SI          1.28852844E-015  21.0439625  2.88006377
 SI          5.76012754  19.6862869  2.88006377
 SI          3.84008503  21.0439625  2.88006377
 SI          1.92004251  19.6862869  2.88006377
 SI          5.76012754  18.3286114  4.80010653
 SI          1.92004251  18.3286114  4.80010653
 SI          1.03913589E-015  16.9709377  4.80010653
 SI          3.84008503  16.9709377  4.80010653
 SI          5.76012754  19.6862869  6.72014904
 SI          3.84008503  21.0439625  6.72014904
 SI          1.28852844E-015  21.0439625  6.72014904
 SI          1.92004251  19.6862869  6.72014904
 SI          1.37165932E-015  22.4016361  0.960021257
 SI          3.84008503  22.4016361  0.960021257
 SI          1.92004251  23.7593117  0.960021257
 SI          5.76012754  23.7593117  0.960021257
 SI          1.62105197E-015  26.4746609  2.88006377
 SI          5.76012754  25.1169872  2.88006377
 SI          3.84008503  26.4746609  2.88006377
 SI          1.92004251  25.1169872  2.88006377
 SI          5.76012754  23.7593117  4.80010653
 SI          1.92004251  23.7593117  4.80010653
 SI          1.37165932E-015  22.4016361  4.80010653
 SI          3.84008503  22.4016361  4.80010653
 SI          5.76012754  25.1169872  6.72014904
 SI          3.84008503  26.4746609  6.72014904
 SI          1.62105197E-015  26.4746609  6.72014904
 SI          1.92004251  25.1169872  6.72014904
 SI          1.70418286E-015  27.8323364  0.960021257
 SI          3.84008503  27.8323364  0.960021257
 SI          1.92004251  29.190012  0.960021257
 SI          5.76012754  29.190012  0.960021257
 SI          1.9535754E-015  31.9053612  2.88006377
 SI          5.76012754  30.5476856  2.88006377
 SI          3.84008503  31.9053612  2.88006377
 SI          1.92004251  30.5476856  2.88006377
 SI          5.76012754  29.190012  4.80010653
 SI          1.92004251  29.190012  4.80010653
 SI          1.70418286E-015  27.8323364  4.80010653
 SI          3.84008503  27.8323364  4.80010653
 SI          5.76012754  30.5476856  6.72014904
 SI          3.84008503  31.9053612  6.72014904
 SI          1.9535754E-015  31.9053612  6.72014904
 SI          1.92004251  30.5476856  6.72014904
 SI          2.03670639E-015  33.2630348  0.960021257
 SI          3.84008503  33.2630348  0.960021257
 SI          1.92004251  34.6207123  0.960021257
 SI          5.76012754  34.6207123  0.960021257
 SI          2.28609894E-015  37.3360596  2.88006377
 SI          5.76012754  35.9783859  2.88006377
 SI          3.84008503  37.3360596  2.88006377
 SI          1.92004251  35.9783859  2.88006377
 SI          5.76012754  34.6207123  4.80010653
 SI          1.92004251  34.6207123  4.80010653
 SI          2.03670639E-015  33.2630348  4.80010653
 SI          3.84008503  33.2630348  4.80010653
 SI          5.76012754  35.9783859  6.72014904
 SI          3.84008503  37.3360596  6.72014904
 SI          2.28609894E-015  37.3360596  6.72014904
 SI          1.92004251  35.9783859  6.72014904
 SI          7.68017006  0.678837478  0.960021257
 SI          11.5202551  0.678837478  0.960021257
 SI          9.6002121  2.03651237  0.960021257
 SI          13.4402981  2.03651237  0.960021257
 SI          7.68017006  4.75186253  2.88006377
 SI          13.4402981  3.39418745  2.88006377
 SI          11.5202551  4.75186253  2.88006377
 SI          9.6002121  3.39418745  2.88006377
 SI          13.4402981  2.03651237  4.80010653
 SI          9.6002121  2.03651237  4.80010653
 SI          7.68017006  0.678837478  4.80010653
 SI          11.5202551  0.678837478  4.80010653
 SI          13.4402981  3.39418745  6.72014904
 SI          11.5202551  4.75186253  6.72014904
 SI          7.68017006  4.75186253  6.72014904
 SI          9.6002121  3.39418745  6.72014904
 SI          7.68017006  6.10953712  0.960021257
 SI          11.5202551  6.10953712  0.960021257
 SI          9.6002121  7.4672122  0.960021257
 SI          13.4402981  7.4672122  0.960021257
 SI          7.68017006  10.1825619  2.88006377
 SI          13.4402981  8.82488728  2.88006377
 SI          11.5202551  10.1825619  2.88006377
 SI          9.6002121  8.82488728  2.88006377
 SI          13.4402981  7.4672122  4.80010653
 SI          9.6002121  7.4672122  4.80010653
 SI          7.68017006  6.10953712  4.80010653
 SI          11.5202551  6.10953712  4.80010653
 SI          13.4402981  8.82488728  6.72014904
 SI          11.5202551  10.1825619  6.72014904
 SI          7.68017006  10.1825619  6.72014904
 SI          9.6002121  8.82488728  6.72014904
 SI          7.68017006  11.5402374  0.960021257
 SI          11.5202551  11.5402374  0.960021257
 SI          9.6002121  12.897912  0.960021257
 SI          13.4402981  12.897912  0.960021257
 SI          7.68017006  15.6132622  2.88006377
 SI          13.4402981  14.2555866  2.88006377
 SI          11.5202551  15.6132622  2.88006377
 SI          9.6002121  14.2555866  2.88006377
 SI          13.4402981  12.897912  4.80010653
 SI          9.6002121  12.897912  4.80010653
 SI          7.68017006  11.5402374  4.80010653
 SI          11.5202551  11.5402374  4.80010653
 SI          13.4402981  14.2555866  6.72014904
 SI          11.5202551  15.6132622  6.72014904
 SI          7.68017006  15.6132622  6.72014904
 SI          9.6002121  14.2555866  6.72014904
 SI          7.68017006  16.9709377  0.960021257
 SI          11.5202551  16.9709377  0.960021257
 SI          9.6002121  18.3286114  0.960021257
 SI          13.4402981  18.3286114  0.960021257
 SI          7.68017006  21.0439625  2.88006377
 SI          13.4402981  19.6862869  2.88006377
 SI          11.5202551  21.0439625  2.88006377
 SI          9.6002121  19.6862869  2.88006377
 SI          13.4402981  18.3286114  4.80010653
 SI          9.6002121  18.3286114  4.80010653
 SI          7.68017006  16.9709377  4.80010653
 SI          11.5202551  16.9709377  4.80010653
 SI          13.4402981  19.6862869  6.72014904
 SI          11.5202551  21.0439625  6.72014904
 SI          7.68017006  21.0439625  6.72014904
 SI          9.6002121  19.6862869  6.72014904
 SI          7.68017006  22.4016361  0.960021257
 SI          11.5202551  22.4016361  0.960021257
 SI          9.6002121  23.7593117  0.960021257
 SI          13.4402981  23.7593117  0.960021257
 SI          7.68017006  26.4746609  2.88006377
 SI          13.4402981  25.1169872  2.88006377
 SI          11.5202551  26.4746609  2.88006377
 SI          9.6002121  25.1169872  2.88006377
 SI          13.4402981  23.7593117  4.80010653
 SI          9.6002121  23.7593117  4.80010653
 SI          7.68017006  22.4016361  4.80010653
 SI          11.5202551  22.4016361  4.80010653
 SI          13.4402981  25.1169872  6.72014904
 SI          11.5202551  26.4746609  6.72014904
 SI          7.68017006  26.4746609  6.72014904
 SI          9.6002121  25.1169872  6.72014904
 SI          7.68017006  27.8323364  0.960021257
 SI          11.5202551  27.8323364  0.960021257
 SI          9.6002121  29.190012  0.960021257
 SI          13.4402981  29.190012  0.960021257
 SI          7.68017006  31.9053612  2.88006377
 SI          13.4402981  30.5476856  2.88006377
 SI          11.5202551  31.9053612  2.88006377
 SI          9.6002121  30.5476856  2.88006377
 SI          13.4402981  29.190012  4.80010653
 SI          9.6002121  29.190012  4.80010653
 SI          7.68017006  27.8323364  4.80010653
 SI          11.5202551  27.8323364  4.80010653
 SI          13.4402981  30.5476856  6.72014904
 SI          11.5202551  31.9053612  6.72014904
 SI          7.68017006  31.9053612  6.72014904
 SI          9.6002121  30.5476856  6.72014904
 SI          7.68017006  33.2630348  0.960021257
 SI          11.5202551  33.2630348  0.960021257
 SI          9.6002121  34.6207123  0.960021257
 SI          13.4402981  34.6207123  0.960021257
 SI          7.68017006  37.3360596  2.88006377
 SI          13.4402981  35.9783859  2.88006377
 SI          11.5202551  37.3360596  2.88006377
 SI          9.6002121  35.9783859  2.88006377
 SI          13.4402981  34.6207123  4.80010653
 SI          9.6002121  34.6207123  4.80010653
 SI          7.68017006  33.2630348  4.80010653
 SI          11.5202551  33.2630348  4.80010653
 SI          13.4402981  35.9783859  6.72014904
 SI          11.5202551  37.3360596  6.72014904
 SI          7.68017006  37.3360596  6.72014904
 SI          9.6002121  35.9783859  6.72014904
 SI          15.3603401  0.678837478  0.960021257
 SI          19.2004242  0.678837478  0.960021257
 SI          17.2803822  2.03651237  0.960021257
 SI          21.1204681  2.03651237  0.960021257
 SI          15.3603401  4.75186253  2.88006377
 SI          21.1204681  3.39418745  2.88006377
 SI          19.2004242  4.75186253  2.88006377
 SI          17.2803822  3.39418745  2.88006377
 SI          21.1204681  2.03651237  4.80010653
 SI          17.2803822  2.03651237  4.80010653
 SI          15.3603401  0.678837478  4.80010653
 SI          19.2004242  0.678837478  4.80010653
 SI          21.1204681  3.39418745  6.72014904
 SI          19.2004242  4.75186253  6.72014904
 SI          15.3603401  4.75186253  6.72014904
 SI          17.2803822  3.39418745  6.72014904
 SI          15.3603401  6.10953712  0.960021257
 SI          19.2004242  6.10953712  0.960021257
 SI          17.2803822  7.4672122  0.960021257
 SI          21.1204681  7.4672122  0.960021257
 SI          15.3603401  10.1825619  2.88006377
 SI          21.1204681  8.82488728  2.88006377
 SI          19.2004242  10.1825619  2.88006377
 SI          17.2803822  8.82488728  2.88006377
 SI          21.1204681  7.4672122  4.80010653
 SI          17.2803822  7.4672122  4.80010653
 SI          15.3603401  6.10953712  4.80010653
 SI          19.2004242  6.10953712  4.80010653
 SI          21.1204681  8.82488728  6.72014904
 SI          19.2004242  10.1825619  6.72014904
 SI          15.3603401  10.1825619  6.72014904
 SI          17.2803822  8.82488728  6.72014904
 SI          15.3603401  11.5402374  0.960021257
 SI          19.2004242  11.5402374  0.960021257
 SI          17.2803822  12.897912  0.960021257
 SI          21.1204681  12.897912  0.960021257
 SI          15.3603401  15.6132622  2.88006377
 SI          21.1204681  14.2555866  2.88006377
 SI          19.2004242  15.6132622  2.88006377
 SI          17.2803822  14.2555866  2.88006377
 SI          21.1204681  12.897912  4.80010653
 SI          17.2803822  12.897912  4.80010653
 SI          15.3603401  11.5402374  4.80010653
 SI          19.2004242  11.5402374  4.80010653
 SI          21.1204681  14.2555866  6.72014904
 SI          19.2004242  15.6132622  6.72014904
 SI          15.3603401  15.6132622  6.72014904
 SI          17.2803822  14.2555866  6.72014904
 SI          15.3603401  16.9709377  0.960021257
 SI          19.2004242  16.9709377  0.960021257
 SI          17.2803822  18.3286114  0.960021257
 SI          21.1204681  18.3286114  0.960021257
 SI          15.3603401  21.0439625  2.88006377
 SI          21.1204681  19.6862869  2.88006377
 SI          19.2004242  21.0439625  2.88006377
 SI          17.2803822  19.6862869  2.88006377
 SI          21.1204681  18.3286114  4.80010653
 SI          17.2803822  18.3286114  4.80010653
 SI          15.3603401  16.9709377  4.80010653
 SI          19.2004242  16.9709377  4.80010653
 SI          21.1204681  19.6862869  6.72014904
 SI          19.2004242  21.0439625  6.72014904
 SI          15.3603401  21.0439625  6.72014904
 SI          17.2803822  19.6862869  6.72014904
 SI          15.3603401  22.4016361  0.960021257
 SI          19.2004242  22.4016361  0.960021257
 SI          17.2803822  23.7593117  0.960021257
 SI          21.1204681  23.7593117  0.960021257
 SI          15.3603401  26.4746609  2.88006377
 SI          21.1204681  25.1169872  2.88006377
 SI          19.2004242  26.4746609  2.88006377
 SI          17.2803822  25.1169872  2.88006377
 SI          21.1204681  23.7593117  4.80010653
 SI          17.2803822  23.7593117  4.80010653
 SI          15.3603401  22.4016361  4.80010653
 SI          19.2004242  22.4016361  4.80010653
 SI          21.1204681  25.1169872  6.72014904
 SI          19.2004242  26.4746609  6.72014904
 SI          15.3603401  26.4746609  6.72014904
 SI          17.2803822  25.1169872  6.72014904
 SI          15.3603401  27.8323364  0.960021257
 SI          19.2004242  27.8323364  0.960021257
 SI          17.2803822  29.190012  0.960021257
 SI          21.1204681  29.190012  0.960021257
 SI          15.3603401  31.9053612  2.88006377
 SI          21.1204681  30.5476856  2.88006377
 SI          19.2004242  31.9053612  2.88006377
 SI          17.2803822  30.5476856  2.88006377
 SI          21.1204681  29.190012  4.80010653
 SI          17.2803822  29.190012  4.80010653
 SI          15.3603401  27.8323364  4.80010653
 SI          19.2004242  27.8323364  4.80010653
 SI          21.1204681  30.5476856  6.72014904
 SI          19.2004242  31.9053612  6.72014904
 SI          15.3603401  31.9053612  6.72014904
 SI          17.2803822  30.5476856  6.72014904
 SI          15.3603401  33.2630348  0.960021257
 SI          19.2004242  33.2630348  0.960021257
 SI          17.2803822  34.6207123  0.960021257
 SI          21.1204681  34.6207123  0.960021257
 SI          15.3603401  37.3360596  2.88006377
 SI          21.1204681  35.9783859  2.88006377
 SI          19.2004242  37.3360596  2.88006377
 SI          17.2803822  35.9783859  2.88006377
 SI          21.1204681  34.6207123  4.80010653
 SI          17.2803822  34.6207123  4.80010653
 SI          15.3603401  33.2630348  4.80010653
 SI          19.2004242  33.2630348  4.80010653
 SI          21.1204681  35.9783859  6.72014904
 SI          19.2004242  37.3360596  6.72014904
 SI          15.3603401  37.3360596  6.72014904
 SI          17.2803822  35.9783859  6.72014904
 SI          23.0405102  0.678837478  0.960021257
 SI          26.8805962  0.678837478  0.960021257
 SI          24.9605522  2.03651237  0.960021257
 SI          28.8006382  2.03651237  0.960021257
 SI          23.0405102  4.75186253  2.88006377
 SI          28.8006382  3.39418745  2.88006377
 SI          26.8805962  4.75186253  2.88006377
 SI          24.9605522  3.39418745  2.88006377
 SI          28.8006382  2.03651237  4.80010653
 SI          24.9605522  2.03651237  4.80010653
 SI          23.0405102  0.678837478  4.80010653
 SI          26.8805962  0.678837478  4.80010653
 SI          28.8006382  3.39418745  6.72014904
 SI          26.8805962  4.75186253  6.72014904
 SI          23.0405102  4.75186253  6.72014904
 SI          24.9605522  3.39418745  6.72014904
 SI          23.0405102  6.10953712  0.960021257
 SI          26.8805962  6.10953712  0.960021257
 SI          24.9605522  7.4672122  0.960021257
 SI          28.8006382  7.4672122  0.960021257
 SI          23.0405102  10.1825619  2.88006377
 SI          28.8006382  8.82488728  2.88006377
 SI          26.8805962  10.1825619  2.88006377
 SI          24.9605522  8.82488728  2.88006377
 SI          28.8006382  7.4672122  4.80010653
 SI          24.9605522  7.4672122  4.80010653
 SI          23.0405102  6.10953712  4.80010653
 SI          26.8805962  6.10953712  4.80010653
 SI          28.8006382  8.82488728  6.72014904
 SI          26.8805962  10.1825619  6.72014904
 SI          23.0405102  10.1825619  6.72014904
 SI          24.9605522  8.82488728  6.72014904
 SI          23.0405102  11.5402374  0.960021257
 SI          26.8805962  11.5402374  0.960021257
 SI          24.9605522  12.897912  0.960021257
 SI          28.8006382  12.897912  0.960021257
 SI          23.0405102  15.6132622  2.88006377
 SI          28.8006382  14.2555866  2.88006377
 SI          26.8805962  15.6132622  2.88006377
 SI          24.9605522  14.2555866  2.88006377
 SI          28.8006382  12.897912  4.80010653
 SI          24.9605522  12.897912  4.80010653
 SI          23.0405102  11.5402374  4.80010653
 SI          26.8805962  11.5402374  4.80010653
 SI          28.8006382  14.2555866  6.72014904
 SI          26.8805962  15.6132622  6.72014904
 SI          23.0405102  15.6132622  6.72014904
 SI          24.9605522  14.2555866  6.72014904
 SI          23.0405102  16.9709377  0.960021257
 SI          26.8805962  16.9709377  0.960021257
 SI          24.9605522  18.3286114  0.960021257
 SI          28.8006382  18.3286114  0.960021257
 SI          23.0405102  21.0439625  2.88006377
 SI          28.8006382  19.6862869  2.88006377
 SI          26.8805962  21.0439625  2.88006377
 SI          24.9605522  19.6862869  2.88006377
 SI          28.8006382  18.3286114  4.80010653
 SI          24.9605522  18.3286114  4.80010653
 SI          23.0405102  16.9709377  4.80010653
 SI          26.8805962  16.9709377  4.80010653
 SI          28.8006382  19.6862869  6.72014904
 SI          26.8805962  21.0439625  6.72014904
 SI          23.0405102  21.0439625  6.72014904
 SI          24.9605522  19.6862869  6.72014904
 SI          23.0405102  22.4016361  0.960021257
 SI          26.8805962  22.4016361  0.960021257
 SI          24.9605522  23.7593117  0.960021257
 SI          28.8006382  23.7593117  0.960021257
 SI          23.0405102  26.4746609  2.88006377
 SI          28.8006382  25.1169872  2.88006377
 SI          26.8805962  26.4746609  2.88006377
 SI          24.9605522  25.1169872  2.88006377
 SI          28.8006382  23.7593117  4.80010653
 SI          24.9605522  23.7593117  4.80010653
 SI          23.0405102  22.4016361  4.80010653
 SI          26.8805962  22.4016361  4.80010653
 SI          28.8006382  25.1169872  6.72014904
 SI          26.8805962  26.4746609  6.72014904
 SI          23.0405102  26.4746609  6.72014904
 SI          24.9605522  25.1169872  6.72014904
 SI          23.0405102  27.8323364  0.960021257
 SI          26.8805962  27.8323364  0.960021257
 SI          24.9605522  29.190012  0.960021257
 SI          28.8006382  29.190012  0.960021257
 SI          23.0405102  31.9053612  2.88006377
 SI          28.8006382  30.5476856  2.88006377
 SI          26.8805962  31.9053612  2.88006377
 SI          24.9605522  30.5476856  2.88006377
 SI          28.8006382  29.190012  4.80010653
 SI          24.9605522  29.190012  4.80010653
 SI          23.0405102  27.8323364  4.80010653
 SI          26.8805962  27.8323364  4.80010653
 SI          28.8006382  30.5476856  6.72014904
 SI          26.8805962  31.9053612  6.72014904
 SI          23.0405102  31.9053612  6.72014904
 SI          24.9605522  30.5476856  6.72014904
 SI          23.0405102  33.2630348  0.960021257
 SI          26.8805962  33.2630348  0.960021257
 SI          24.9605522  34.6207123  0.960021257
 SI          28.8006382  34.6207123  0.960021257
 SI          23.0405102  37.3360596  2.88006377
 SI          28.8006382  35.9783859  2.88006377
 SI          26.8805962  37.3360596  2.88006377
 SI          24.9605522  35.9783859  2.88006377
 SI          28.8006382  34.6207123  4.80010653
 SI          24.9605522  34.6207123  4.80010653
 SI          23.0405102  33.2630348  4.80010653
 SI          26.8805962  33.2630348  4.80010653
 SI          28.8006382  35.9783859  6.72014904
 SI          26.8805962  37.3360596  6.72014904
 SI          23.0405102  37.3360596  6.72014904
 SI          24.9605522  35.9783859  6.72014904
 SI          30.7206802  0.678837478  0.960021257
 SI          34.5607643  0.678837478  0.960021257
 SI          32.6407242  2.03651237  0.960021257
 SI          36.4808083  2.03651237  0.960021257
 SI          30.7206802  4.75186253  2.88006377
 SI          36.4808083  3.39418745  2.88006377
 SI          34.5607643  4.75186253  2.88006377
 SI          32.6407242  3.39418745  2.88006377
 SI          36.4808083  2.03651237  4.80010653
 SI          32.6407242  2.03651237  4.80010653
 SI          30.7206802  0.678837478  4.80010653
 SI          34.5607643  0.678837478  4.80010653
 SI          36.4808083  3.39418745  6.72014904
 SI          34.5607643  4.75186253  6.72014904
 SI          30.7206802  4.75186253  6.72014904
 SI          32.6407242  3.39418745  6.72014904
 SI          30.7206802  6.10953712  0.960021257
 SI          34.5607643  6.10953712  0.960021257
 SI          32.6407242  7.4672122  0.960021257
 SI          36.4808083  7.4672122  0.960021257
 SI          30.7206802  10.1825619  2.88006377
 SI          36.4808083  8.82488728  2.88006377
 SI          34.5607643  10.1825619  2.88006377
 SI          32.6407242  8.82488728  2.88006377
 SI          36.4808083  7.4672122  4.80010653
 SI          32.6407242  7.4672122  4.80010653
 SI          30.7206802  6.10953712  4.80010653
 SI          34.5607643  6.10953712  4.80010653
 SI          36.4808083  8.82488728  6.72014904
 SI          34.5607643  10.1825619  6.72014904
 SI          30.7206802  10.1825619  6.72014904
 SI          32.6407242  8.82488728  6.72014904
 SI          30.7206802  11.5402374  0.960021257
 SI          34.5607643  11.5402374  0.960021257
 SI          32.6407242  12.897912  0.960021257
 SI          36.4808083  12.897912  0.960021257
 SI          30.7206802  15.6132622  2.88006377
 SI          36.4808083  14.2555866  2.88006377
 SI          34.5607643  15.6132622  2.88006377
 SI          32.6407242  14.2555866  2.88006377
 SI          36.4808083  12.897912  4.80010653
 SI          32.6407242  12.897912  4.80010653
 SI          30.7206802  11.5402374  4.80010653
 SI          34.5607643  11.5402374  4.80010653
 SI          36.4808083  14.2555866  6.72014904
 SI          34.5607643  15.6132622  6.72014904
 SI          30.7206802  15.6132622  6.72014904
 SI          32.6407242  14.2555866  6.72014904
 SI          30.7206802  16.9709377  0.960021257
 SI          34.5607643  16.9709377  0.960021257
 SI          32.6407242  18.3286114  0.960021257
 SI          36.4808083  18.3286114  0.960021257
 SI          30.7206802  21.0439625  2.88006377
 SI          36.4808083  19.6862869  2.88006377
 SI          34.5607643  21.0439625  2.88006377
 SI          32.6407242  19.6862869  2.88006377
 SI          36.4808083  18.3286114  4.80010653
 SI          32.6407242  18.3286114  4.80010653
 SI          30.7206802  16.9709377  4.80010653
 SI          34.5607643  16.9709377  4.80010653
 SI          36.4808083  19.6862869  6.72014904
 SI          34.5607643  21.0439625  6.72014904
 SI          30.7206802  21.0439625  6.72014904
 SI          32.6407242  19.6862869  6.72014904
 SI          30.7206802  22.4016361  0.960021257
 SI          34.5607643  22.4016361  0.960021257
 SI          32.6407242  23.7593117  0.960021257
 SI          36.4808083  23.7593117  0.960021257
 SI          30.7206802  26.4746609  2.88006377
 SI          36.4808083  25.1169872  2.88006377
 SI          34.5607643  26.4746609  2.88006377
 SI          32.6407242  25.1169872  2.88006377
 SI          36.4808083  23.7593117  4.80010653
 SI          32.6407242  23.7593117  4.80010653
 SI          30.7206802  22.4016361  4.80010653
 SI          34.5607643  22.4016361  4.80010653
 SI          36.4808083  25.1169872  6.72014904
 SI          34.5607643  26.4746609  6.72014904
 SI          30.7206802  26.4746609  6.72014904
 SI          32.6407242  25.1169872  6.72014904
 SI          30.7206802  27.8323364  0.960021257
 SI          34.5607643  27.8323364  0.960021257
 SI          32.6407242  29.190012  0.960021257
 SI          36.4808083  29.190012  0.960021257
 SI          30.7206802  31.9053612  2.88006377
 SI          36.4808083  30.5476856  2.88006377
 SI          34.5607643  31.9053612  2.88006377
 SI          32.6407242  30.5476856  2.88006377
 SI          36.4808083  29.190012  4.80010653
 SI          32.6407242  29.190012  4.80010653
 SI          30.7206802  27.8323364  4.80010653
 SI          34.5607643  27.8323364  4.80010653
 SI          36.4808083  30.5476856  6.72014904
 SI          34.5607643  31.9053612  6.72014904
 SI          30.7206802  31.9053612  6.72014904
 SI          32.6407242  30.5476856  6.72014904
 SI          30.7206802  33.2630348  0.960021257
 SI          34.5607643  33.2630348  0.960021257
 SI          32.6407242  34.6207123  0.960021257
 SI          36.4808083  34.6207123  0.960021257
 SI          30.7206802  37.3360596  2.88006377
 SI          36.4808083  35.9783859  2.88006377
 SI          34.5607643  37.3360596  2.88006377
 SI          32.6407242  35.9783859  2.88006377
 SI          36.4808083  34.6207123  4.80010653
 SI          32.6407242  34.6207123  4.80010653
 SI          30.7206802  33.2630348  4.80010653
 SI          34.5607643  33.2630348  4.80010653
 SI          36.4808083  35.9783859  6.72014904
 SI          34.5607643  37.3360596  6.72014904
 SI          30.7206802  37.3360596  6.72014904
 SI          32.6407242  35.9783859  6.72014904
